[TITLE]
Scenario: Base 
Date: 6/26/2019 2:45:30 PM 

[JUNCTIONS]
;ID              	Elev        	Demand      	Pattern         
 1023            	10          	0           	                	;
 1027            	8           	0           	                	;
 271             	6           	0           	                	;
 269             	0           	0           	                	;
 267             	21          	0           	                	;
 265             	0           	0           	                	;
 1015            	27          	40.39       	1               	;
 1016            	36          	54.52       	1               	;
 1014            	30          	24.16       	1               	;
 1013            	18          	0           	                	;
 1012            	18          	70.38       	1               	;
 1000            	14          	4.34        	1               	;
 1011            	13          	0           	                	;
 1010            	13          	44.61       	1               	;
 1009            	14          	15.61       	1               	;
 1007            	5           	16.48       	1               	;
 1006            	10.5        	64.18       	1               	;
 1003            	8           	22.8        	1               	;
 1001            	4           	41.32       	1               	;
 1002            	6           	24.22       	1               	;
 1004            	7           	92.19       	1               	;
 1005            	7           	13.94       	1               	;
 1008            	7           	8.67        	1               	;
 1019            	-2          	0.87        	1               	;
 1020            	16          	0           	                	;
 1022            	9           	69.39       	1               	;
 1021            	1           	0           	                	;
 1026            	21          	65.36       	1               	;
 204             	21          	0           	                	;
 1025            	2           	1           	5               	;
 1024            	0.1         	44.61       	1               	;
 1028            	-2          	119.32      	1               	;
 197             	23          	17.04       	1               	;
 195             	15.5        	0           	                	;
 193             	18          	71.31       	1               	;
 191             	25          	81.9        	1               	;
 189             	4           	107.92      	1               	;
 187             	12.5        	0           	                	;
 185             	16          	25.65       	1               	;
 184             	16          	0           	                	;
 183             	11          	0           	                	;
 181             	8           	0           	                	;
 179             	8           	0           	                	;
 173             	-4          	0           	                	;
 171             	-4          	39.34       	1               	;
 169             	-5          	0           	                	;
 167             	-5          	14.56       	1               	;
 166             	-2          	2.6         	1               	;
 164             	5           	0           	                	;
 163             	5           	9.42        	1               	;
 161             	4           	15.8        	1               	;
 159             	6           	41.32       	1               	;
 113             	2           	20.01       	1               	;
 1017            	116.5       	0           	                	;
 40              	131.9       	0           	                	;
 1               	0           	0           	                	;

[RESERVOIRS]
;ID              	Head        	Pattern         

[TANKS]
;ID              	Elevation   	InitLevel   	MinLevel    	MaxLevel    	Diameter    	MinVol      	VolCurve        	Overflow

[PIPES]
;ID              	Node1           	Node2           	Length      	Diameter    	Roughness   	MinorLoss   	Status
 204             	184             	1026            	4530        	12          	130         	0           	Open  	;
 203             	183             	185             	510         	8           	130         	0           	Open  	;
 202             	185             	184             	99.9        	8           	130         	0           	Open  	;
 201             	40              	179             	1190        	12          	130         	0           	Open  	;
 199             	179             	183             	210         	12          	130         	0           	Open  	;
 191             	271             	171             	760         	24          	130         	0           	Open  	;
 189             	171             	173             	500         	30          	141         	0           	Open  	;
 187             	169             	171             	1270        	30          	141         	0           	Open  	;
 186             	187             	204             	99.9        	8           	130         	0           	Open  	;
 185             	167             	169             	300         	8           	130         	0           	Open  	;
 183             	265             	169             	590         	30          	141         	0           	Open  	;
 181             	164             	166             	490         	14          	130         	0           	Open  	;
 180             	163             	164             	150         	14          	130         	0           	Open  	;
 179             	161             	163             	430         	30          	141         	0           	Open  	;
 177             	159             	161             	2000        	30          	141         	0           	Open  	;
 116             	113             	193             	1660        	12          	130         	0           	Open  	;
 325             	269             	271             	1290        	8           	130         	0           	Open  	;
 323             	1024            	1023            	300         	12          	130         	0           	Open  	;
 321             	163             	265             	1200        	30          	141         	0           	Open  	;
 319             	1027            	1026            	645         	12          	130         	0           	Open  	;
 317             	1027            	1023            	2230        	8           	130         	0           	Open  	;
 315             	181             	271             	290         	24          	130         	0           	Open  	;
 313             	269             	189             	646         	12          	130         	0           	Open  	;
 311             	193             	267             	1170        	12          	130         	0           	Open  	;
 309             	265             	267             	1580        	8           	130         	0           	Open  	;
 295             	1013            	1014            	1450        	12          	130         	0           	Open  	;
 293             	1015            	1014            	1100        	8           	130         	0           	Open  	;
 291             	1015            	1016            	1100        	10          	130         	0           	Open  	;
 289             	1015            	1017            	925         	10          	130         	0           	Open  	;
 287             	1012            	1015            	1390        	10          	130         	0           	Open  	;
 285             	1012            	1013            	100         	12          	130         	0           	Open  	;
 283             	1010            	1013            	430         	12          	130         	0           	Open  	;
 281             	1011            	1012            	445         	10          	130         	0           	Open  	;
 277             	1011            	1000            	2200        	12          	130         	0           	Open  	;
 275             	1010            	1011            	350         	12          	130         	0           	Open  	;
 273             	1009            	1010            	510         	12          	130         	0           	Open  	;
 271             	1009            	1006            	790         	8           	130         	0           	Open  	;
 7               	1008            	1009            	2080        	12          	130         	0           	Open  	;
 263             	1006            	1007            	1960        	12          	130         	0           	Open  	;
 4               	1005            	1006            	2200        	8           	130         	0           	Open  	;
 257             	1002            	1003            	1560        	12          	130         	0           	Open  	;
 0               	1002            	1001            	2050        	14          	130         	0           	Open  	;
 249             	1004            	1002            	1660        	16          	130         	0           	Open  	;
 3               	1005            	1004            	4285        	16          	130         	0           	Open  	;
 6               	1008            	1005            	990         	16          	130         	0           	Open  	;
 21              	1019            	1008            	1210        	16          	130         	0           	Open  	;
 241             	1020            	1019            	885         	12          	130         	0           	Open  	;
 240             	1021            	1020            	510         	12          	130         	0           	Open  	;
 239             	1023            	1022            	1430        	12          	130         	0           	Open  	;
 238             	1022            	1021            	450         	12          	130         	0           	Open  	;
 237             	1026            	1022            	1200        	12          	130         	0           	Open  	;
 235             	1028            	1027            	725         	12          	130         	0           	Open  	;
 233             	1024            	1025            	120         	24          	130         	0           	Open  	;
 231             	1028            	1024            	630         	24          	141         	0           	Open  	;
 229             	173             	1028            	4000        	24          	141         	0           	Open  	;
 223             	197             	191             	1150        	12          	130         	0           	Open  	;
 221             	161             	195             	2300        	8           	130         	0           	Open  	;
 219             	193             	195             	360         	12          	130         	0           	Open  	;
 217             	191             	193             	520         	12          	130         	0           	Open  	;
 215             	267             	189             	1230        	12          	130         	0           	Open  	;
 213             	191             	187             	2560        	12          	130         	0           	Open  	;
 211             	169             	269             	646         	12          	130         	0           	Open  	;
 209             	189             	187             	500         	8           	130         	0           	Open  	;
 207             	189             	183             	1350        	12          	130         	0           	Open  	;
 205             	204             	185             	1325        	12          	130         	0           	Open  	;

[PUMPS]
;ID              	Node1           	Node2           	Parameters

[VALVES]
;ID              	Node1           	Node2           	Diameter    	Type	Setting     	MinorLoss   
 5               	1017            	1               	12          	PRV 	900         	0           	;

[TAGS]

[DEMANDS]
;Junction        	Demand      	Pattern         	Category

[STATUS]
;ID              	Status/Setting

[PATTERNS]
;ID              	Multipliers
;
 1               	1.34        	1.94        	1.46        	1.44        	0.76        	0.92        
 1               	0.85        	1.07        	0.96        	1.1         	1.08        	1.19        
 1               	1.16        	1.08        	0.96        	0.83        	0.79        	0.74        
 1               	0.64        	0.64        	0.85        	0.96        	1.24        	1.67        
;
 2               	0           	0           	0           	0           	0           	1219        
 2               	0           	0           	0           	1866        	1836        	1818        
 2               	1818        	1822        	1822        	1817        	1824        	1816        
 2               	1833        	1817        	1830        	1814        	1840        	1859        
;
 3               	620         	620         	620         	620         	620         	360         
 3               	360         	0           	0           	0           	0           	360         
 3               	360         	360         	360         	360         	0           	0           
 3               	0           	0           	0           	0           	360         	360         
;
 4               	1637        	1706        	1719        	1719        	1791        	1819        
 4               	1777        	1842        	1815        	1825        	1856        	1801        
 4               	1819        	1733        	1664        	1620        	1613        	1620        
 4               	1616        	1647        	1627        	1627        	1671        	1668        
;
 5               	4439        	4531        	4511        	4582        	4531        	4582        
 5               	4572        	4613        	4643        	4643        	4592        	4613        
 5               	4531        	4521        	4449        	4439        	4449        	4460        
 5               	4439        	4419        	4368        	4399        	4470        	4480        
;
 ValveClosure    	1           

[CURVES]
;ID              	X-Value     	Y-Value
;PUMP: PUMP: PUMP: PUMP: PUMP: PUMP: PUMP: PUMP:
 335             	0           	200         
 335             	8000        	138         
 335             	14000       	86          
;PUMP: PUMP: PUMP: PUMP: PUMP: PUMP: PUMP: EFFICIENCY:
 335E            	0           	75          
 335E            	8000        	75          
 335E            	14000       	75          
;PUMP: PUMP: PUMP: PUMP: PUMP: PUMP: PUMP: PUMP:
 10              	0           	104         
 10              	2000        	92          
 10              	4000        	63          
;PUMP: PUMP: PUMP: PUMP: PUMP: PUMP: PUMP: EFFICIENCY:
 10E             	0           	75          
 10E             	2000        	75          
 10E             	4000        	75          

[CONTROLS]







[RULES]







[ENERGY]
 Global Efficiency  	75
 Global Price       	0
 Demand Charge      	0

[EMITTERS]
;Junction        	Coefficient

[QUALITY]
;Node            	InitQual

[SOURCES]
;Node            	Type        	Quality     	Pattern

[REACTIONS]
;Type     	Pipe/Tank       	Coefficient


[REACTIONS]
 Order Bulk            	1
 Order Tank            	1
 Order Wall            	1
 Global Bulk           	0
 Global Wall           	0
 Limiting Potential    	0
 Roughness Correlation 	0

[MIXING]
;Tank            	Model

[TIMES]
 Duration           	24:00 
 Hydraulic Timestep 	1:00 
 Quality Timestep   	0:05 
 Pattern Timestep   	1:00 
 Pattern Start      	0:00 
 Report Timestep    	1:00 
 Report Start       	0:00 
 Start ClockTime    	12 am
 Statistic          	NONE

[REPORT]
 Status             	No
 Summary            	No
 Page               	0

[OPTIONS]
 Units              	GPM
 Headloss           	H-W
 Specific Gravity   	1
 Viscosity          	0.985218181818182
 Trials             	40
 Accuracy           	0.001
 CHECKFREQ          	2
 MAXCHECK           	10
 DAMPLIMIT          	0
 Unbalanced         	Continue 10
 Pattern            	1
 Demand Multiplier  	1
 Emitter Exponent   	0.5
 Quality            	Trace 12345
 Diffusivity        	1
 Tolerance          	0.01

[COORDINATES]
;Node            	X-Coord           	Y-Coord
1023            	31.070            	8.290             
1027            	29.160            	7.380             
271             	26.140            	11.170            
269             	25.030            	12.140            
267             	23.380            	12.950            
265             	25.390            	13.600            
1015            	33.510            	2.450             
1016            	32.170            	1.880             
1014            	34.150            	1.100             
1013            	35.020            	1.810             
1012            	35.020            	2.050             
1000            	37.040            	0.000             
1011            	35.870            	2.110             
1010            	35.760            	2.310             
1009            	35.370            	3.080             
1007            	38.380            	2.540             
1006            	36.160            	3.490             
1003            	43.530            	7.380             
1001            	44.860            	9.320             
1002            	42.110            	8.670             
1004            	39.950            	8.730             
1005            	35.260            	6.160             
1008            	34.200            	5.540             
1019            	33.760            	6.590             
1020            	32.540            	6.810             
1022            	31.000            	6.610             
1021            	31.660            	6.640             
1026            	29.200            	6.460             
204             	23.810            	10.690            
1025            	31.140            	8.890             
1024            	30.890            	8.570             
1028            	29.420            	8.440             
197             	20.970            	15.180            
195             	23.180            	14.720            
193             	22.880            	14.350            
191             	22.100            	14.070            
189             	24.150            	11.370            
187             	23.640            	11.040            
185             	24.790            	9.800             
184             	25.150            	9.520             
183             	25.290            	10.040            
181             	25.720            	10.830            
179             	25.860            	10.380            
173             	26.870            	11.590            
171             	26.650            	11.800            
169             	25.680            	12.740            
167             	25.880            	12.980            
166             	26.480            	15.130            
164             	25.980            	15.140            
163             	25.390            	14.980            
161             	25.100            	15.280            
159             	23.120            	17.500            
113             	22.040            	16.610            
1017            	33.010            	3.010             
40              	27.020            	9.810             
1               	30.806            	3.699             

[VERTICES]
;Link            	X-Coord           	Y-Coord

[LABELS]
;X-Coord             Y-Coord             Label & Anchor Node

[BACKDROP]
  DIMENSIONS  	6.160             	-1.550            	46.700            	32.610            
 UNITS          	None
 FILE           	
 OFFSET         	0.00            	0.00            

[END]
